EVs_4kW/Output_EVs_4kW/output_current_1440.csv
# Output_EVs_4kW\output_current_1440.csv run at 2000-01-02 00:00:00 EST on 907 links
link_name,currA_mag,currA_angle,currB_mag,currB_angle,currC_mag,currC_angle
Source_Impedance,0.515783,-0.230079,0.516908,3.784915,0.436780,1.775085
TR1,0.515783,-0.230079,0.516908,3.784915,0.436780,1.775085
LINE1,11.524781,-0.841184,15.649325,3.347770,11.579055,1.252475
LINE2,11.524781,-0.841184,15.649325,3.347770,11.579055,1.252475
LINE3,11.524781,-0.841184,15.649325,3.347770,11.579055,1.252475
LINE4,11.524781,-0.841184,15.649325,3.347770,11.579055,1.252475
LINE5,11.524781,-0.841184,15.649325,3.347770,11.579055,1.252475
LINE6,11.524781,-0.841184,15.649325,3.347770,11.579055,1.252475
LINE7,11.524781,-0.841184,15.649325,3.347770,11.579055,1.252475
LINE8,11.524781,-0.841184,15.649325,3.347770,11.579055,1.252475
LINE9,11.524781,-0.841184,15.649325,3.347770,11.579055,1.252475
LINE10,11.524781,-0.841184,15.649325,3.347770,11.579055,1.252475
LINE11,11.524781,-0.841184,15.649325,3.347770,11.579055,1.252475
LINE12,11.524781,-0.841184,15.649325,3.347770,11.579055,1.252475
LINE13,11.524781,-0.841184,15.649325,3.347770,11.579055,1.252475
LINE14,11.524781,-0.841184,15.649325,3.347770,11.579055,1.252475
LINE15,0.000000,1.082217,0.000000,2.545323,0.000000,1.574421
LINE16,11.524781,-0.841184,15.649325,3.347770,11.579055,1.252475
LINE17,0.000000,1.545864,0.000000,2.473160,0.000000,4.665976
LINE18,11.524781,-0.841184,15.649325,3.347770,11.579055,1.252475
LINE19,0.000000,2.133867,0.000000,1.545864,0.000000,4.695269
LINE20,11.524781,-0.841184,15.649325,3.347770,11.579055,1.252475
LINE21,0.000000,1.165358,0.000000,1.545864,0.000000,4.648902
LINE22,11.524781,-0.841184,15.649325,3.347770,11.579055,1.252475
LINE23,0.000000,0.760466,0.000000,1.545864,0.000000,4.548706
LINE24,11.524781,-0.841184,15.649325,3.347770,11.579055,1.252475
LINE25,0.000000,0.333839,0.000000,1.545864,0.000000,4.532460
LINE26,1.599709,-0.841478,0.000000,-0.566780,0.000000,1.481919
LINE27,9.925073,-0.841136,15.649325,3.347770,11.579055,1.252475
LINE28,0.000000,0.438716,0.000000,2.653013,0.000000,3.116661
LINE29,0.150359,-0.841488,0.000000,-1.325519,0.000000,-1.503941
LINE30,1.449350,-0.841478,0.000000,-0.582010,0.000000,1.476015
LINE31,9.925073,-0.841136,15.649325,3.347770,11.579055,1.252475
LINE32,0.000000,-0.190081,0.000000,3.438411,0.000000,3.116661
LINE33,0.150359,-0.841488,0.000000,2.938018,0.000000,1.483238
LINE34,1.449350,-0.841478,0.000000,-0.392667,0.000000,1.586155
LINE35,0.000000,0.971678,0.472362,3.347239,0.000000,-1.482460
LINE36,9.925073,-0.841136,15.176963,3.347787,11.579055,1.252475
LINE37,0.000000,0.438716,0.000000,4.687457,0.000000,2.005598
LINE38,1.449350,-0.841478,0.000000,3.842113,0.000000,4.658050
LINE39,0.000000,0.868067,0.234091,3.347239,0.000000,-1.469659
LINE40,0.000000,1.847140,0.238271,3.347239,0.000000,-1.563349
LINE41,9.925073,-0.841136,15.176963,3.347787,11.579056,1.252475
LINE42,0.000000,2.190960,0.000000,1.467195,0.000000,4.139675
LINE43,0.000000,3.580308,0.000000,1.545864,0.000000,1.669258
LINE44,1.449350,-0.841478,0.000000,3.432266,0.000000,1.525594
LINE45,0.000000,1.920802,0.234091,3.347239,0.000000,-1.536156
LINE46,0.000000,3.340655,0.238271,3.347239,0.000000,1.530808
LINE47,9.925073,-0.841136,15.176963,3.347787,11.579056,1.252475
LINE48,0.000000,2.125868,0.000000,1.679206,0.000000,4.073680
LINE49,0.000000,2.653013,0.000000,0.957862,0.000000,3.116661
LINE50,1.449350,-0.841478,0.000000,-0.907785,0.000000,2.936142
LINE51,0.000000,1.848302,0.234091,3.347239,0.000000,-1.544382
LINE52,9.925073,-0.841136,15.176963,3.347787,11.579056,1.252475
LINE53,0.000000,0.216725,0.000000,4.148386,0.000000,4.302579
LINE54,0.000000,2.097070,0.000000,1.283821,0.000000,4.325620
LINE55,0.000000,3.580308,0.000000,0.693898,0.000000,4.481438
LINE56,1.449350,-0.841478,0.000000,1.318786,0.000000,1.589641
LINE57,0.000000,1.363865,0.234091,3.347239,0.000000,-1.559619
LINE58,9.925073,-0.841136,15.176963,3.347787,11.579056,1.252475
LINE59,0.000000,0.204456,0.000000,4.702208,0.000000,4.393898
LINE60,0.000000,1.868739,0.000000,2.746029,0.000000,4.376971
LINE61,0.000000,3.902059,0.000000,0.693898,0.000000,1.746263
LINE62,1.449350,-0.841478,0.000000,1.098427,0.000000,4.702977
LINE63,0.000000,4.601091,0.234091,3.347239,0.000000,-1.558639
LINE64,7.760594,-0.841097,15.176963,3.347787,11.579056,1.252475
LINE65,2.164479,-0.841279,0.000000,3.472052,0.000000,-1.542665
LINE66,0.000000,0.053437,0.000000,4.296570,0.000000,2.618451
LINE67,0.000000,2.217388,0.000000,1.846630,0.000000,4.324688
LINE68,0.000000,3.361639,0.000000,0.563071,0.000000,3.116661
LINE69,1.449350,-0.841478,0.000000,3.233448,0.000000,1.489436
LINE70,0.000000,2.458228,0.234091,3.347239,0.000000,4.709723
LINE71,7.760594,-0.841097,15.176963,3.347787,11.579056,1.252475
LINE72,0.204742,-0.841286,0.000000,3.125568,0.000000,4.532376
LINE73,1.959737,-0.841278,0.000000,3.089600,0.000000,-1.480468
LINE74,0.000000,-0.225449,0.000000,4.079266,0.000000,1.817793
LINE75,0.000000,2.227755,0.000000,1.857074,0.000000,4.387068
LINE76,0.000000,2.951512,0.000000,0.533667,0.000000,4.491439
LINE77,0.000000,0.088670,0.234091,3.347239,0.000000,-1.409207
LINE78,7.760594,-0.841097,15.176963,3.347787,11.579056,1.252475
LINE79,0.000000,-0.204986,0.000000,4.424300,0.000000,2.523759
LINE80,0.000000,2.199796,0.000000,1.773371,0.000000,4.319094
LINE81,0.000000,3.039889,0.000000,0.631770,0.000000,4.021229
LINE82,0.000000,-0.745615,0.234091,3.347239,0.000000,-1.492495
LINE83,7.760594,-0.841097,15.176963,3.347787,11.579056,1.252475
LINE84,0.000000,-0.646483,0.000000,-0.646483,0.000000,3.740062
LINE85,0.000000,2.197681,0.000000,1.786700,0.000000,4.320942
LINE86,0.000000,3.241016,0.000000,0.580613,0.000000,1.826355
LINE87,7.760594,-0.841097,15.176963,3.347787,11.579056,1.252475
LINE88,0.000000,2.939962,0.000000,2.939962,0.000000,-0.144492
LINE89,0.000000,2.154960,0.000000,1.566475,0.000000,4.266989
LINE90,0.000000,2.951512,0.000000,0.355574,0.000000,3.116661
LINE91,7.760594,-0.841097,15.176963,3.347787,11.579056,1.252475
LINE92,0.000000,1.931611,0.000000,2.449627,0.000000,4.413027
LINE93,0.000000,3.116661,0.000000,0.760466,0.000000,1.570274
LINE94,7.760594,-0.841097,15.176963,3.347787,11.579056,1.252475
LINE95,0.000000,1.734000,0.000000,1.436050,0.000000,4.439377
LINE96,0.000000,2.653013,0.000000,0.140217,0.000000,-0.024932
LINE97,7.760594,-0.841097,15.176963,3.347787,11.579056,1.252475
LINE98,0.000000,1.823852,0.000000,0.439377,0.000000,4.314814
LINE99,0.000000,3.116661,0.000000,-0.269911,0.000000,4.667928
LINE100,7.760594,-0.841097,15.176963,3.347787,11.579056,1.252475
LINE101,0.000000,0.447159,0.000000,-0.615450,0.000000,4.261130
LINE102,0.000000,0.000000,0.000000,0.000000,0.000000,-0.024932
LINE103,0.217277,-0.841246,1.284828,3.347567,0.443215,1.252520
LINE104,7.543317,-0.841092,13.892135,3.347807,11.135841,1.252473
LINE105,0.000000,0.208165,0.000000,-0.609854,0.000000,4.227695
LINE106,0.217277,-0.841246,1.284828,3.347567,0.443215,1.252520
LINE107,7.543317,-0.841092,13.892135,3.347807,11.135841,1.252473
LINE108,0.000000,2.895858,0.000000,-0.501673,0.000000,4.101822
LINE109,0.217277,-0.841246,1.284828,3.347567,0.443215,1.252520
LINE110,7.543317,-0.841092,13.892135,3.347807,11.135841,1.252473
LINE111,0.000000,3.100909,0.000000,-0.512859,0.000000,4.093910
LINE112,0.217277,-0.841246,1.284828,3.347567,0.443215,1.252520
LINE113,7.543317,-0.841092,13.892135,3.347807,11.135841,1.252473
LINE114,0.000000,3.106312,0.000000,-0.516264,0.000000,4.091463
LINE115,0.217277,-0.841246,1.284828,3.347567,0.443215,1.252520
LINE116,0.213108,-0.841221,4.551936,3.347737,2.752350,1.252491
LINE117,7.330209,-0.841089,9.340199,3.347841,8.383491,1.252467
LINE118,0.000000,2.964319,0.000000,-0.487248,0.000000,4.084270
LINE119,0.217277,-0.841246,1.284828,3.347567,0.443215,1.252520
LINE120,0.000000,2.773637,0.000000,0.140217,0.000000,1.537076
LINE121,0.213108,-0.841221,4.551936,3.347737,2.752350,1.252491
LINE122,7.330209,-0.841089,9.340199,3.347841,8.383491,1.252467
LINE123,0.000000,3.142447,0.000000,-0.536934,0.000000,4.044490
LINE124,0.217277,-0.841246,1.284828,3.347567,0.443215,1.252520
LINE125,0.000000,2.742327,0.000000,0.116965,0.000000,1.575153
LINE126,0.213108,-0.841221,4.551936,3.347737,2.752350,1.252491
LINE127,7.330209,-0.841089,9.340199,3.347841,8.383491,1.252467
LINE128,0.000000,3.017403,0.000000,-0.556438,0.000000,4.033930
LINE129,0.217277,-0.841246,1.284828,3.347567,0.443215,1.252520
LINE130,0.000000,2.745769,0.000000,0.046376,0.000000,1.546841
LINE131,0.213108,-0.841221,0.000000,0.002378,0.000000,-1.567611
LINE132,0.000000,0.994491,4.551936,3.347737,2.752350,1.252491
LINE133,7.330209,-0.841089,9.340199,3.347841,8.383491,1.252467
LINE134,0.000000,3.291482,0.000000,-0.564459,0.000000,4.082134
LINE135,0.217277,-0.841246,1.284828,3.347567,0.443215,1.252520
LINE136,0.000000,2.698436,0.000000,0.030567,0.000000,1.563441
LINE137,0.213108,-0.841221,0.000000,-0.016972,0.000000,-1.569498
LINE138,0.000000,0.976537,4.551936,3.347737,2.752350,1.252491
LINE139,7.330209,-0.841089,9.340199,3.347841,8.383491,1.252467
LINE140,0.000000,3.461292,0.000000,-0.566140,0.000000,4.078552
LINE141,0.217277,-0.841246,1.284828,3.347567,0.443215,1.252520
LINE142,0.000000,2.716420,0.000000,0.030567,0.000000,1.549527
LINE143,0.213108,-0.841221,0.000000,0.033917,0.000000,-1.568355
LINE144,0.000000,0.965109,4.551936,3.347737,2.752350,1.252491
LINE145,7.330209,-0.841089,9.340199,3.347841,8.383491,1.252467
LINE146,0.000000,-1.388043,0.000000,-0.625967,0.000000,4.156032
LINE147,0.217277,-0.841246,1.284828,3.347567,0.443215,1.252520
LINE148,0.000000,2.653013,0.000000,0.160416,0.000000,1.555304
LINE149,0.213108,-0.841221,0.000000,0.184136,0.000000,-1.567401
LINE150,0.000000,1.049900,0.000000,2.200819,2.752350,1.252491
LINE151,0.000000,0.621999,4.551936,3.347737,0.000000,-1.406115
LINE152,7.330209,-0.841089,9.340199,3.347841,8.383491,1.252467
LINE153,0.000000,-0.131325,0.000000,-0.475705,0.000000,4.151613
LINE154,0.217277,-0.841246,1.284828,3.347567,0.443215,1.252520
LINE155,0.000000,2.597515,0.000000,0.085725,0.000000,1.570518
LINE156,0.213108,-0.841221,0.000000,0.301532,0.000000,-1.562408
LINE157,0.000000,1.025338,0.000000,2.189262,2.752350,1.252491
LINE158,0.000000,0.703008,4.551936,3.347737,0.000000,-1.374380
LINE159,7.330209,-0.841089,9.340199,3.347841,8.383491,1.252467
LINE160,0.000000,0.306645,0.000000,4.663891,0.000000,2.209887
LINE161,0.000000,2.888408,0.878883,3.347571,0.000000,1.570823
LINE162,0.217277,-0.841246,0.405946,3.347559,0.443215,1.252520
LINE163,0.000000,2.711769,0.000000,0.220047,0.000000,1.576779
LINE164,0.213108,-0.841221,0.000000,0.278157,0.000000,-1.564031
LINE165,0.000000,1.039740,0.000000,2.186310,2.752350,1.252491
LINE166,0.000000,0.673690,4.551936,3.347737,0.000000,-1.421447
LINE167,7.330209,-0.841089,9.340199,3.347841,8.383491,1.252467
LINE168,0.000000,3.046298,0.000000,0.296604,0.000000,4.196136
LINE169,0.000000,2.807602,0.878883,3.347571,0.000000,1.715211
LINE170,0.217277,-0.841246,0.405946,3.347559,0.443215,1.252520
LINE171,0.000000,2.825204,0.000000,0.220047,0.000000,1.547818
LINE172,0.213108,-0.841221,0.000000,0.255947,0.000000,-1.566711
LINE173,0.000000,2.131955,0.000000,2.028491,0.000000,4.440649
LINE174,0.000000,-0.244103,0.000000,3.734804,2.752350,1.252491
LINE175,0.000000,2.155904,4.551936,3.347737,0.000000,-1.371616
LINE176,7.330209,-0.841089,9.340199,3.347841,8.383491,1.252467
LINE177,0.000000,-1.109071,0.878883,3.347571,0.000000,0.037959
LINE178,0.217277,-0.841246,0.405946,3.347559,0.000000,-1.509517
LINE179,0.000000,3.176141,0.000000,0.091509,0.443215,1.252520
LINE180,0.000000,2.473160,0.000000,0.099423,0.000000,1.547818
LINE181,0.213108,-0.841221,0.000000,0.373301,0.000000,-1.560268
LINE182,0.000000,2.072922,0.000000,2.184763,0.000000,4.376094
LINE183,0.000000,-0.281615,0.000000,3.709793,2.752350,1.252491
LINE184,0.000000,2.539978,4.551936,3.347737,0.000000,-1.396836
LINE185,7.330209,-0.841089,9.340199,3.347841,8.383491,1.252467
LINE186,0.217277,-0.841246,0.405946,3.347559,0.000000,-1.540920
LINE187,0.000000,3.173046,0.000000,0.105365,0.443215,1.252520
LINE188,0.000000,2.331263,0.000000,0.563071,0.000000,3.116661
LINE189,0.213108,-0.841221,0.000000,0.293479,0.000000,-1.563789
LINE190,0.000000,0.932560,0.000000,-0.715371,0.000000,4.144375
LINE191,0.000000,1.641834,0.000000,2.223936,0.000000,3.867669
LINE192,0.000000,-0.280184,0.000000,3.738328,2.752350,1.252491
LINE193,0.000000,2.684515,4.551936,3.347737,0.000000,-1.404504
LINE194,7.330209,-0.841089,9.340199,3.347841,8.383491,1.252467
LINE195,0.217277,-0.841246,0.405946,3.347559,0.000000,-1.560298
LINE196,0.000000,3.280552,0.000000,0.071483,0.221607,1.252520
LINE197,0.000000,3.180575,0.000000,0.113886,0.221607,1.252520
LINE198,0.000000,2.653013,0.000000,-0.024932,0.000000,1.588807
LINE199,0.213108,-0.841221,0.000000,0.243126,0.000000,-1.553510
LINE200,0.000000,0.826197,0.000000,4.286211,0.000000,4.342762
LINE201,0.000000,1.505098,0.000000,2.475985,0.000000,4.587973
LINE202,0.000000,-0.307907,0.000000,3.878705,2.752350,1.252491
LINE203,0.000000,2.679552,4.551936,3.347737,0.000000,-1.438469
LINE204,7.330209,-0.841089,9.340199,3.347841,8.383491,1.252467
LINE205,0.217277,-0.841246,0.000000,0.193430,0.000000,4.536145
LINE206,0.000000,1.335624,0.405946,3.347559,0.000000,4.491783
LINE207,0.000000,-0.141013,0.000000,1.539378,0.221607,1.252520
LINE208,0.000000,3.145074,0.000000,0.462717,0.221607,1.252520
LINE209,0.000000,3.580308,0.000000,2.331263,0.000000,1.562464
LINE210,0.213108,-0.841221,0.000000,0.184132,0.000000,-1.553812
LINE211,0.000000,2.730878,0.000000,2.561016,0.000000,4.303158
LINE212,0.000000,-0.308011,0.000000,3.803188,2.752350,1.252491
LINE213,0.000000,2.603191,4.551936,3.347737,0.000000,-1.426876
LINE214,7.330209,-0.841089,9.340199,3.347841,8.383491,1.252467
LINE215,0.217277,-0.841246,0.000000,4.144260,0.000000,1.574712
LINE216,0.000000,1.464145,0.405946,3.347559,0.000000,4.655967
LINE217,0.000000,3.680789,0.000000,0.689178,0.221607,1.252520
LINE218,0.000000,0.000000,0.000000,0.000000,0.000000,3.116661
LINE219,0.213108,-0.841221,0.000000,0.200675,0.000000,-1.546924
LINE220,0.000000,2.893707,0.000000,2.354392,0.000000,2.463613
LINE221,0.000000,-0.290750,0.000000,3.782190,2.752350,1.252491
LINE222,0.000000,2.663750,4.551936,3.347737,0.000000,-1.456277
LINE223,7.330209,-0.841089,9.340199,3.347841,8.383491,1.252467
LINE224,0.217277,-0.841246,0.000000,-1.109542,0.000000,1.589090
LINE225,0.000000,1.759577,0.405946,3.347559,0.000000,4.680992
LINE226,0.000000,-0.786160,0.000000,3.128143,0.221607,1.252520
LINE227,0.213108,-0.841221,0.000000,-0.043556,0.000000,-1.546887
LINE228,0.000000,2.989886,0.000000,2.560804,0.000000,2.818129
LINE229,0.000000,-0.256741,0.000000,3.802684,2.752350,1.252491
LINE230,0.000000,2.626720,4.551936,3.347737,0.000000,-1.450100
LINE231,7.330209,-0.841089,9.340199,3.347841,8.383491,1.252467
LINE232,0.000000,-0.188174,0.405946,3.347559,0.000000,1.461215
LINE233,0.000000,-0.066920,0.000000,4.321534,0.000000,4.340721
LINE234,0.000000,-0.654033,0.000000,3.060224,0.221607,1.252520
LINE235,0.213108,-0.841221,0.000000,-0.403653,0.000000,-1.516203
LINE236,0.000000,2.556364,0.000000,2.603903,0.000000,3.540791
LINE237,0.000000,-0.257978,0.000000,3.756393,2.752350,1.252491
LINE238,0.000000,3.074315,4.551936,3.347737,0.000000,-1.437664
LINE239,7.330209,-0.841089,9.340199,3.347841,8.383491,1.252467
LINE240,0.000000,-0.012494,0.405946,3.347559,0.000000,0.948358
LINE241,0.000000,4.268219,0.000000,2.868341,0.221607,1.252520
LINE242,0.213108,-0.841221,0.000000,-1.429477,0.000000,-1.555209
LINE243,0.000000,3.862047,0.000000,2.775628,0.000000,2.677012
LINE244,0.000000,-0.270053,0.000000,3.713150,2.752350,1.252491
LINE245,0.000000,3.368880,4.551936,3.347737,0.000000,-1.444139
LINE246,7.330209,-0.841089,9.340199,3.347841,8.383491,1.252467
LINE247,0.000000,3.212185,0.200880,3.347559,0.000000,-0.995934
LINE248,0.000000,2.201403,0.205065,3.347559,0.000000,1.505639
LINE249,0.000000,2.225122,0.000000,1.929589,0.221607,1.252520
LINE250,0.213108,-0.841221,0.000000,4.002285,0.000000,-1.537472
LINE251,0.000000,2.472386,0.000000,2.884966,0.000000,2.913698
LINE252,0.000000,-0.253510,0.000000,3.729142,2.752350,1.252491
LINE253,0.000000,3.324273,4.551936,3.347737,0.000000,-1.447245
LINE254,0.647824,-0.841193,0.000000,0.439681,0.000000,4.641523
LINE255,6.682385,-0.841079,9.340199,3.347841,8.383491,1.252467
LINE256,0.000000,0.451880,0.000000,-0.798242,0.221607,1.252520
LINE257,0.213108,-0.841221,0.000000,3.369828,0.000000,-1.421730
LINE258,0.000000,2.127343,0.000000,3.552118,0.000000,4.194061
LINE259,0.000000,-0.249021,0.000000,3.791607,2.752350,1.252491
LINE260,0.000000,3.198495,4.551936,3.347737,0.000000,-1.426432
LINE261,0.647824,-0.841193,0.000000,0.427618,0.000000,4.637225
LINE262,6.682385,-0.841079,9.340199,3.347841,8.383491,1.252467
LINE263,0.000000,-0.072927,0.000000,2.962418,0.221607,1.252520
LINE264,0.213108,-0.841221,0.000000,2.126106,0.000000,2.188264
LINE265,0.000000,1.334837,0.000000,3.464701,0.000000,3.731640
LINE266,0.000000,-0.237787,0.000000,3.756507,2.752350,1.252491
LINE267,0.000000,2.772462,4.363517,3.347738,0.000000,-1.321573
LINE268,0.000000,3.360208,0.188419,3.347706,0.000000,-1.497418
LINE269,0.647824,-0.841193,0.000000,0.647663,0.000000,4.610206
LINE270,0.000000,-0.048770,0.000000,3.509508,0.209168,1.252455
LINE271,6.682385,-0.841079,9.340199,3.347841,8.174323,1.252468
LINE272,0.213108,-0.841221,0.000000,1.051850,0.000000,4.603146
LINE273,0.000000,1.898463,0.000000,3.724256,0.000000,4.547996
LINE274,0.000000,-0.138152,0.000000,3.554333,2.752350,1.252491
LINE275,0.000000,0.090940,4.363517,3.347738,0.000000,1.598954
LINE276,0.000000,2.967230,0.188419,3.347706,0.000000,-1.519760
LINE277,0.647824,-0.841193,0.000000,0.581164,0.000000,4.609345
LINE278,0.000000,-0.026893,0.000000,3.554580,0.209168,1.252455
LINE279,6.682385,-0.841079,9.340199,3.347841,8.174323,1.252468
LINE280,0.213108,-0.841221,0.000000,-0.521144,0.000000,1.574825
LINE281,0.000000,-1.003561,0.000000,-0.771103,0.000000,2.746144
LINE282,0.000000,-0.143273,0.000000,3.542334,2.752350,1.252491
LINE283,0.000000,2.696794,0.188419,3.347706,0.000000,-1.483827
LINE284,0.647824,-0.841193,0.000000,0.826858,0.000000,4.619554
LINE285,0.000000,-0.158238,0.000000,3.639844,0.209168,1.252455
LINE286,1.826822,-0.841043,4.651116,3.347823,1.179957,1.252367
LINE287,4.855564,-0.841092,4.689083,3.347859,6.994366,1.252485
LINE288,0.213108,-0.841221,0.000000,-1.415670,0.000000,1.859611
LINE289,0.000000,0.251747,0.000000,0.251747,0.000000,-1.445889
LINE290,0.000000,2.988747,0.000000,2.396051,0.225870,1.252484
LINE291,0.000000,-0.141576,0.000000,4.404956,2.526480,1.252492
LINE292,0.000000,2.119831,0.188419,3.347706,0.000000,-1.506092
LINE293,0.647824,-0.841193,0.000000,0.671294,0.000000,4.619640
LINE294,0.000000,-0.083913,0.000000,3.537353,0.209168,1.252455
LINE295,1.826822,-0.841043,4.651116,3.347823,1.179957,1.252367
LINE296,4.855564,-0.841092,4.689083,3.347859,6.994366,1.252485
LINE297,0.000000,3.280367,0.000000,-1.378082,0.225870,1.252484
LINE298,0.000000,-0.065458,0.000000,-1.113519,2.526480,1.252492
LINE299,0.000000,3.428417,0.188419,3.347706,0.000000,0.833310
LINE300,0.647824,-0.841193,0.000000,0.760023,0.000000,4.598330
LINE301,0.000000,-0.046311,0.000000,3.499666,0.209168,1.252455
LINE302,1.826822,-0.841043,4.651116,3.347823,1.179957,1.252367
LINE303,4.855564,-0.841092,4.689083,3.347859,6.994366,1.252485
LINE304,0.000000,3.108711,0.000000,0.253890,0.225870,1.252484
LINE305,0.000000,0.737343,0.000000,1.895969,2.526480,1.252492
LINE306,0.000000,4.136177,0.188419,3.347706,0.000000,-1.545964
LINE307,0.647824,-0.841193,0.000000,0.824792,0.000000,4.568177
LINE308,0.000000,-0.101368,0.000000,3.753843,0.209168,1.252455
LINE309,1.826822,-0.841043,4.651116,3.347823,1.179957,1.252367
LINE310,4.855564,-0.841092,4.689083,3.347859,6.994366,1.252485
LINE311,0.000000,3.083833,0.000000,0.407978,0.225870,1.252484
LINE312,0.000000,2.859208,0.000000,0.598721,2.526480,1.252492
LINE313,0.000000,-0.064336,0.188419,3.347706,0.000000,2.521913
LINE314,0.647824,-0.841193,0.000000,1.170230,0.000000,4.559034
LINE315,0.000000,-0.101371,0.000000,3.581860,0.209168,1.252455
LINE316,0.259136,-0.841159,0.000000,1.949529,0.000000,1.416472
LINE317,1.567686,-0.841024,4.651116,3.347823,1.179957,1.252367
LINE318,4.855564,-0.841092,4.689083,3.347859,6.994366,1.252485
LINE319,0.000000,2.541789,0.000000,0.279299,0.225870,1.252484
LINE320,0.000000,2.097361,0.000000,0.393820,2.526480,1.252492
LINE321,0.647824,-0.841193,0.000000,1.118442,0.000000,4.558339
LINE322,0.000000,0.047337,0.000000,2.446900,0.209168,1.252455
LINE323,0.259136,-0.841159,0.000000,1.899762,0.000000,1.458356
LINE324,1.567686,-0.841024,4.651116,3.347823,1.179957,1.252367
LINE325,4.855564,-0.841092,4.689083,3.347859,6.994366,1.252485
LINE326,0.000000,-1.033987,0.000000,-0.105707,2.526480,1.252492
LINE327,0.647824,-0.841193,0.000000,0.834409,0.000000,4.548309
LINE328,0.000000,4.215830,0.000000,2.672377,0.209168,1.252455
LINE329,0.259136,-0.841159,0.000000,1.927114,0.000000,1.462226
LINE330,0.000000,3.570008,0.000000,3.810085,0.225914,1.252369
LINE331,1.567686,-0.841024,4.651116,3.347823,0.954042,1.252366
LINE332,4.855564,-0.841092,4.689083,3.347859,6.994366,1.252485
LINE333,0.647824,-0.841193,0.000000,0.713443,0.000000,4.548366
LINE334,0.000000,1.515378,0.000000,-0.632933,0.209168,1.252455
LINE335,0.259136,-0.841159,0.000000,1.936460,0.000000,1.462627
LINE336,0.000000,-0.017909,0.000000,-0.766341,0.225914,1.252369
LINE337,0.000000,2.865744,3.448505,3.347830,0.000000,1.447024
LINE338,1.567686,-0.841024,1.202610,3.347802,0.954042,1.252366
LINE339,4.855564,-0.841092,4.689083,3.347859,6.994366,1.252485
LINE340,0.647824,-0.841193,0.000000,0.785842,0.000000,4.525757
LINE341,0.000000,4.001177,0.000000,2.252717,0.209168,1.252455
LINE342,0.142107,-0.841159,0.000000,3.003649,0.000000,4.683850
LINE343,0.117029,-0.841159,0.000000,1.852333,0.000000,1.433636
LINE344,0.000000,2.853666,3.448505,3.347830,0.000000,1.447761
LINE345,1.567686,-0.841024,1.202610,3.347802,0.954042,1.252366
LINE346,4.855564,-0.841092,4.689083,3.347859,6.994366,1.252485
LINE347,0.647824,-0.841193,0.000000,0.864427,0.000000,4.565940
LINE348,0.142107,-0.841159,0.000000,1.460601,0.000000,1.549680
LINE349,0.117029,-0.841159,0.000000,1.465823,0.000000,1.513591
LINE350,0.000000,2.911531,3.448505,3.347830,0.000000,1.394261
LINE351,1.567686,-0.841024,1.202610,3.347802,0.954042,1.252366
LINE352,4.855564,-0.841092,4.689083,3.347859,6.994366,1.252485
LINE353,0.647824,-0.841193,0.000000,0.268692,0.000000,3.860898
LINE354,0.117029,-0.841159,0.000000,1.880395,0.000000,-0.642892
LINE355,0.000000,2.728353,3.448505,3.347830,0.000000,0.998093
LINE356,1.567686,-0.841024,1.202610,3.347802,0.954042,1.252366
LINE357,4.855564,-0.841092,4.689083,3.347859,6.994366,1.252485
LINE358,0.647824,-0.841193,0.000000,-0.886678,0.000000,2.159096
LINE359,0.117029,-0.841159,0.000000,1.250253,0.000000,-1.165852
LINE360,0.000000,2.918091,3.448505,3.347830,0.000000,0.033680
LINE361,1.567686,-0.841024,1.202610,3.347802,0.954042,1.252366
LINE362,4.855564,-0.841092,4.689083,3.347859,6.994366,1.252485
LINE363,0.647824,-0.841193,0.000000,0.084373,0.000000,4.241548
LINE364,0.117029,-0.841159,0.000000,2.041494,0.000000,-0.332952
LINE365,0.000000,2.880426,3.448505,3.347830,0.000000,0.964327
LINE366,1.567686,-0.841024,1.202610,3.347802,0.954042,1.252366
LINE367,4.855564,-0.841092,4.689083,3.347859,6.994366,1.252485
LINE368,0.647824,-0.841193,0.000000,-1.143034,0.000000,1.643470
LINE369,0.117029,-0.841159,0.000000,2.052313,0.000000,-1.460510
LINE370,0.000000,2.737870,3.448505,3.347830,0.000000,1.360335
LINE371,1.567686,-0.841024,1.202610,3.347802,0.954042,1.252366
LINE372,4.855564,-0.841092,4.689083,3.347859,6.994366,1.252485
LINE373,0.647824,-0.841193,0.000000,-0.094907,0.000000,4.585368
LINE374,0.117029,-0.841159,0.000000,3.138305,0.000000,-1.167687
LINE375,0.000000,2.658771,3.448505,3.347830,0.000000,1.541581
LINE376,1.567686,-0.841024,1.202610,3.347802,0.954042,1.252366
LINE377,4.855564,-0.841092,4.689083,3.347859,4.885306,1.252477
LINE378,0.000000,1.240499,0.000000,0.044602,2.109061,1.252503
LINE379,0.647824,-0.841193,0.000000,0.175768,0.000000,3.435191
LINE380,0.117029,-0.841159,0.000000,0.187892,0.000000,4.705050
LINE381,0.000000,2.307287,3.448505,3.347830,0.000000,1.511197
LINE382,1.567686,-0.841024,1.202610,3.347802,0.954042,1.252366
LINE383,4.855564,-0.841092,4.689083,3.347859,4.885306,1.252477
LINE384,0.000000,0.065506,0.000000,-0.374396,2.109061,1.252503
LINE385,0.000000,2.558220,0.000000,0.125757,0.000000,-1.482070
LINE386,0.647824,-0.841193,0.000000,-0.777020,0.000000,1.453707
LINE387,0.117029,-0.841159,0.000000,-0.096987,0.000000,4.616422
LINE388,0.000000,2.308626,3.448505,3.347830,0.000000,1.436376
LINE389,1.567686,-0.841024,1.202610,3.347802,0.954042,1.252366
LINE390,4.855564,-0.841092,4.689083,3.347859,4.885306,1.252477
LINE391,0.000000,0.037855,0.000000,-0.333728,2.109061,1.252503
LINE392,0.000000,2.544711,0.000000,0.099810,0.000000,-1.477174
LINE393,0.000000,1.165681,3.448505,3.347830,0.000000,4.704773
LINE394,1.567686,-0.841024,1.202610,3.347802,0.954042,1.252366
LINE395,0.000000,3.001244,0.000000,1.665421,1.280424,1.252482
LINE396,4.855564,-0.841092,4.689083,3.347859,3.604882,1.252475
LINE397,0.000000,-0.102012,0.000000,-1.069450,2.109061,1.252503
LINE398,0.000000,2.607511,0.000000,0.090258,0.000000,-1.487841
LINE399,0.000000,0.346239,3.448505,3.347830,0.000000,1.365007
LINE400,1.567686,-0.841024,1.202610,3.347802,0.954042,1.252366
LINE401,0.000000,2.952379,0.000000,1.484882,1.280424,1.252482
LINE402,4.855564,-0.841092,4.689083,3.347859,3.604882,1.252475
LINE403,0.000000,0.190318,0.000000,-0.255322,2.109061,1.252503
LINE404,0.000000,2.302800,0.000000,0.002598,0.000000,-0.183129
LINE405,0.000000,0.446066,3.448505,3.347830,0.000000,4.700571
LINE406,1.567686,-0.841024,1.202610,3.347802,0.954042,1.252366
LINE407,0.000000,2.989259,0.000000,1.561039,1.280424,1.252482
LINE408,4.855564,-0.841092,4.689083,3.347859,3.604882,1.252475
LINE409,0.000000,-0.279636,0.000000,3.386224,0.000000,1.004154
LINE410,0.000000,-0.225636,0.000000,-0.137972,2.109061,1.252503
LINE411,0.000000,2.284043,0.000000,-0.235661,0.000000,-1.455700
LINE412,1.567686,-0.841024,1.202610,3.347802,0.954042,1.252366
LINE413,0.000000,2.946912,0.000000,1.303920,1.280424,1.252482
LINE414,4.855564,-0.841092,4.689083,3.347859,3.604882,1.252475
LINE415,0.000000,-0.281170,0.000000,3.379634,0.000000,1.088143
LINE416,0.000000,-0.390884,0.000000,-0.058066,2.109061,1.252503
LINE417,0.000000,1.546157,0.000000,0.205031,0.000000,-1.548966
LINE418,1.567686,-0.841024,1.202610,3.347802,0.954042,1.252366
LINE419,0.000000,3.081504,0.000000,0.855204,1.280424,1.252482
LINE420,4.855564,-0.841092,4.689083,3.347859,3.604882,1.252475
LINE421,0.000000,-0.322308,0.000000,3.231377,0.000000,1.211151
LINE422,0.000000,0.311260,0.000000,-0.134452,2.109061,1.252503
LINE423,0.000000,1.086603,0.000000,0.237533,0.000000,-1.552876
LINE424,1.567686,-0.841024,1.202610,3.347802,0.954042,1.252366
LINE425,0.000000,4.574571,0.000000,4.574571,0.000000,1.305603
LINE426,0.000000,3.017368,0.000000,0.781763,1.280424,1.252482
LINE427,4.855564,-0.841092,4.689083,3.347859,3.604882,1.252475
LINE428,0.000000,-0.284556,0.000000,3.341685,0.000000,0.981424
LINE429,0.000000,1.207079,0.000000,-0.213443,2.109061,1.252503
LINE430,0.000000,1.102290,0.000000,0.226402,0.000000,-1.544814
LINE431,1.567686,-0.841024,1.202610,3.347802,0.954042,1.252366
LINE432,0.000000,4.563407,0.000000,1.380834,0.000000,1.330921
LINE433,0.000000,3.047066,0.000000,0.773024,1.280424,1.252482
LINE434,4.855564,-0.841092,4.689083,3.347859,3.604882,1.252475
LINE435,0.000000,-0.293523,0.000000,3.232253,0.000000,-1.127131
LINE436,0.000000,1.565800,0.000000,-0.615368,2.109061,1.252503
LINE437,0.000000,1.010325,0.000000,0.216759,0.000000,-1.493505
LINE438,1.567686,-0.841024,1.202610,3.347802,0.954042,1.252366
LINE439,0.000000,1.373510,0.000000,4.587853,0.000000,4.604338
LINE440,0.000000,3.071386,0.000000,0.829741,1.280424,1.252482
LINE441,4.855564,-0.841092,4.689083,3.347859,3.604882,1.252475
LINE442,0.000000,-0.271340,0.000000,3.280255,0.000000,-1.027663
LINE443,0.000000,0.727262,0.000000,0.158535,2.109061,1.252503
LINE444,0.000000,0.829128,0.000000,0.259373,0.000000,-1.517570
LINE445,1.567686,-0.841024,1.202610,3.347802,0.954042,1.252366
LINE446,0.000000,3.355306,0.000000,0.549898,0.000000,1.415993
LINE447,0.000000,3.110749,0.000000,0.840518,1.280424,1.252482
LINE448,4.855564,-0.841092,4.689083,3.347859,3.604882,1.252475
LINE449,0.000000,-0.265246,0.000000,3.259425,0.000000,-0.962136
LINE450,0.000000,1.267076,0.000000,3.681122,2.109061,1.252503
LINE451,0.000000,1.121229,0.000000,0.239082,0.000000,-1.487606
LINE452,1.567686,-0.841024,1.202610,3.347802,0.954042,1.252366
LINE453,0.000000,2.185678,0.000000,0.280493,0.000000,2.481359
LINE454,0.000000,3.110241,0.000000,0.943308,1.280424,1.252482
LINE455,4.855564,-0.841092,4.689083,3.347859,3.604882,1.252475
LINE456,0.000000,-0.284835,0.000000,3.131175,0.000000,0.824760
LINE457,0.000000,-0.637980,0.000000,3.036714,2.109061,1.252503
LINE458,0.000000,0.995482,0.000000,0.242586,0.000000,-1.535194
LINE459,1.367039,-0.841021,1.202610,3.347802,0.954042,1.252366
LINE460,0.000000,0.727637,0.000000,-0.318531,0.000000,1.442500
LINE461,0.200647,-0.841048,0.000000,0.596200,0.000000,1.734926
LINE462,0.000000,3.127404,0.000000,0.932658,1.280424,1.252482
LINE463,4.855564,-0.841092,4.689083,3.347859,3.604882,1.252475
LINE464,0.000000,-0.314913,0.000000,3.323971,0.000000,1.498525
LINE465,0.000000,0.633301,0.000000,0.122592,0.000000,-1.535974
LINE466,1.367039,-0.841021,1.202610,3.347802,0.954042,1.252366
LINE467,0.000000,-0.082283,0.000000,-0.082283,0.000000,0.126369
LINE468,0.000000,-0.201681,0.000000,-0.201681,0.000000,2.996186
LINE469,0.200647,-0.841048,0.000000,0.564744,0.000000,1.731614
LINE470,0.000000,3.104963,0.000000,0.983909,1.280424,1.252482
LINE471,4.855564,-0.841092,4.689083,3.347859,3.604882,1.252475
LINE472,0.000000,-0.164132,0.000000,3.605377,0.000000,-1.349685
LINE473,0.000000,0.739530,0.000000,0.149566,0.000000,-1.537707
LINE474,1.367039,-0.841021,1.202610,3.347802,0.954042,1.252366
LINE475,0.000000,3.073533,0.000000,0.486997,0.000000,-0.487795
LINE476,0.200647,-0.841048,0.000000,0.569415,0.000000,1.676246
LINE477,0.000000,3.078602,0.000000,1.034409,1.280424,1.252482
LINE478,4.855564,-0.841092,4.689083,3.347859,3.604882,1.252475
LINE479,0.000000,-0.535661,0.000000,3.673435,0.000000,-1.373043
LINE480,0.000000,0.404413,0.000000,0.254433,0.000000,-1.554119
LINE481,0.965725,-0.841015,1.202610,3.347802,0.954042,1.252366
LINE482,0.000000,3.966277,0.000000,1.606182,0.000000,-0.623757
LINE483,0.401314,-0.841034,0.000000,1.757811,0.000000,-1.520853
LINE484,0.200647,-0.841048,0.000000,0.545270,0.000000,1.613228
LINE485,0.000000,3.019104,0.000000,1.287804,1.280424,1.252482
LINE486,4.855564,-0.841092,4.689083,3.347859,3.604882,1.252475
LINE487,0.000000,-0.484856,0.000000,3.626203,0.000000,-1.383151
LINE488,0.000000,-0.243207,0.000000,-0.559568,0.000000,1.590411
LINE489,0.965725,-0.841015,1.202610,3.347802,0.954042,1.252366
LINE490,0.000000,2.939912,0.000000,2.939912,0.000000,-0.145406
LINE491,0.179755,-0.841034,0.000000,1.791935,0.000000,-1.525557
LINE492,0.221559,-0.841034,0.000000,-0.606403,0.000000,-1.430198
LINE493,0.200647,-0.841048,0.000000,0.635481,0.000000,1.608313
LINE494,0.000000,2.835894,0.000000,1.036527,1.280424,1.252482
LINE495,4.855564,-0.841092,4.689083,3.347859,3.604882,1.252475
LINE496,0.000000,-0.498213,0.000000,3.711269,0.000000,-1.473172
LINE497,0.000000,-0.061511,0.000000,2.138944,0.000000,4.496862
LINE498,0.965725,-0.841015,1.202610,3.347802,0.954042,1.252366
LINE499,0.000000,3.852335,0.000000,3.580052,0.000000,1.688682
LINE500,0.179755,-0.841034,0.000000,1.897446,0.000000,-1.548123
LINE501,0.221559,-0.841034,0.000000,3.330807,0.000000,-1.239321
LINE502,0.200647,-0.841048,0.000000,0.721371,0.000000,1.635564
LINE503,0.000000,2.905644,0.000000,0.740986,1.280424,1.252482
LINE504,4.855564,-0.841092,4.689083,3.347859,3.604882,1.252475
LINE505,0.000000,-0.536400,0.000000,3.590657,0.000000,-1.409540
LINE506,0.000000,4.640780,0.000000,1.494356,0.000000,3.241364
LINE507,0.965725,-0.841015,1.202610,3.347802,0.954042,1.252366
LINE508,0.000000,2.321330,0.000000,4.689538,0.000000,2.527953
LINE509,0.179755,-0.841034,0.000000,1.873350,0.000000,-1.402300
LINE510,0.200647,-0.841048,0.000000,0.880372,0.000000,1.621681
LINE511,0.000000,2.940514,0.000000,0.898511,1.280424,1.252482
LINE512,0.000000,3.103298,0.762356,3.347722,0.000000,1.591613
LINE513,4.855564,-0.841092,3.926727,3.347886,3.604882,1.252475
LINE514,0.000000,-0.430233,0.000000,3.423835,0.000000,-1.547152
LINE515,0.000000,1.582784,1.202610,3.347802,0.954042,1.252366
LINE516,0.000000,3.967257,0.000000,4.231321,0.000000,-1.523952
LINE517,0.965725,-0.841015,0.000000,4.232424,0.000000,1.904786
LINE518,0.179755,-0.841034,0.000000,1.954996,0.000000,-1.271766
LINE519,0.200647,-0.841048,0.000000,0.719057,0.000000,1.624521
LINE520,0.000000,2.909388,0.000000,-0.251268,1.280424,1.252482
LINE521,0.000000,2.721857,0.762356,3.347722,0.000000,1.371344
LINE522,4.855564,-0.841092,3.926727,3.347886,3.604882,1.252475
LINE523,0.000000,-0.600282,0.000000,3.631531,0.000000,-1.375645
LINE524,0.000000,1.592528,1.202610,3.347802,0.954042,1.252366
LINE525,0.000000,0.883807,0.000000,2.859638,0.000000,-1.340527
LINE526,0.965725,-0.841015,0.000000,4.252075,0.000000,1.886123
LINE527,0.179755,-0.841034,0.000000,0.935770,0.000000,-1.509727
LINE528,0.200647,-0.841048,0.000000,0.390127,0.000000,1.564943
LINE529,0.000000,-0.538806,0.000000,3.688764,1.280424,1.252482
LINE530,4.855564,-0.841092,3.926727,3.347886,3.604882,1.252475
LINE531,0.000000,-0.765696,0.000000,3.469096,0.000000,-1.536896
LINE532,0.000000,1.652216,1.202610,3.347802,0.954042,1.252366
LINE533,0.000000,2.939912,0.000000,2.939912,0.000000,-0.145406
LINE534,0.965725,-0.841015,0.000000,4.212339,0.000000,1.911139
LINE535,0.179755,-0.841034,0.000000,-0.879242,0.000000,-1.568187
LINE536,0.200647,-0.841048,0.000000,0.341630,0.000000,1.567924
LINE537,0.000000,-1.007593,0.000000,3.758090,1.046105,1.252483
LINE538,0.000000,4.646477,0.000000,0.145025,0.234318,1.252473
LINE539,4.855564,-0.841092,3.926727,3.347886,3.604882,1.252475
LINE540,0.000000,-0.711408,0.000000,3.564830,0.000000,-1.404376
LINE541,0.000000,1.557875,1.202610,3.347802,0.954042,1.252366
LINE542,0.000000,4.377456,0.000000,4.022417,0.000000,3.281932
LINE543,0.965725,-0.841015,0.000000,4.235942,0.000000,1.892641
LINE544,0.179755,-0.841034,0.000000,3.185066,0.000000,-1.395933
LINE545,0.200647,-0.841048,0.000000,0.413176,0.000000,1.565564
LINE546,0.000000,3.376081,0.000000,3.918846,1.046105,1.252483
LINE547,4.855564,-0.841092,3.926727,3.347886,3.604882,1.252475
LINE548,0.000000,-0.484620,0.000000,3.362135,0.000000,4.542969
LINE549,0.000000,1.543290,1.202610,3.347802,0.954042,1.252366
LINE550,0.000000,2.484708,0.000000,2.484708,0.000000,1.193024
LINE551,0.229932,-0.841018,0.000000,4.601571,0.000000,1.958917
LINE552,0.735793,-0.841015,0.000000,0.191122,0.000000,0.553828
LINE553,0.179755,-0.841034,0.000000,0.361969,0.000000,-1.483149
LINE554,0.200647,-0.841048,0.000000,0.486654,0.000000,1.558094
LINE555,0.000000,0.207014,0.000000,-0.181804,1.046105,1.252483
LINE556,4.855564,-0.841092,3.926727,3.347886,3.604882,1.252475
LINE557,0.000000,4.168868,0.000000,3.282128,0.000000,3.271535
LINE558,0.000000,1.574256,1.202610,3.347802,0.954042,1.252366
LINE559,0.000000,2.791932,0.000000,2.791932,0.000000,0.576422
LINE560,0.229932,-0.841018,0.000000,4.511160,0.000000,2.915233
LINE561,0.735793,-0.841015,0.000000,4.031129,0.000000,0.948725
LINE562,0.179755,-0.841034,0.000000,2.909972,0.000000,2.891050
LINE563,0.200647,-0.841048,0.000000,0.317007,0.000000,1.547663
LINE564,4.855564,-0.841092,3.926727,3.347886,3.604882,1.252475
LINE565,0.000000,1.185297,0.000000,3.127386,0.000000,4.394015
LINE566,0.000000,1.225957,0.201123,3.347796,0.954042,1.252366
LINE567,0.000000,0.151544,0.000000,-0.719321,0.000000,2.069069
LINE568,0.000000,2.241890,1.001487,3.347803,0.000000,4.707540
LINE569,0.229932,-0.841018,0.000000,4.480113,0.000000,1.811327
LINE570,0.200647,-0.841048,0.000000,0.628243,0.000000,1.527536
LINE571,4.855564,-0.841092,3.926727,3.347886,3.604882,1.252475
LINE572,0.000000,1.863911,0.201123,3.347796,0.954042,1.252366
LINE573,0.000000,-0.321630,0.000000,3.419120,0.000000,2.178984
LINE574,0.000000,2.327590,1.001487,3.347803,0.000000,4.708032
LINE575,0.229932,-0.841018,0.000000,4.198200,0.000000,1.758542
LINE576,0.200647,-0.841048,0.000000,0.433546,0.000000,1.533719
LINE577,4.855564,-0.841092,3.926727,3.347886,3.604882,1.252475
LINE578,0.000000,0.065933,0.201123,3.347796,0.954042,1.252366
LINE579,0.000000,2.939912,0.000000,2.939912,0.000000,-0.145406
LINE580,0.000000,2.559902,0.000000,4.264104,0.000000,-0.980013
LINE581,0.000000,2.272949,1.001487,3.347803,0.000000,-1.570030
LINE582,0.229932,-0.841018,0.000000,-1.450882,0.000000,1.708184
LINE583,0.200647,-0.841048,0.000000,1.373926,0.000000,1.556030
LINE584,0.000000,3.527441,0.192682,3.347714,0.000000,1.592823
LINE585,4.855564,-0.841092,3.734045,3.347895,3.604882,1.252475
LINE586,0.000000,0.156862,0.201123,3.347796,0.954042,1.252366
LINE587,0.000000,1.572254,0.000000,1.572254,0.000000,1.542323
LINE588,0.000000,2.065430,0.000000,4.067673,0.000000,0.584017
LINE589,0.000000,2.350228,1.001487,3.347803,0.000000,-1.570063
LINE590,0.229932,-0.841018,0.000000,-0.041469,0.000000,4.672930
LINE591,0.200647,-0.841048,0.000000,1.162012,0.000000,1.550140
LINE592,0.000000,3.529087,0.192682,3.347714,0.000000,1.588625
LINE593,4.855564,-0.841092,3.734045,3.347895,3.604882,1.252475
LINE594,0.000000,-0.734719,0.201123,3.347796,0.000000,-1.531431
LINE595,0.000000,-0.159695,0.000000,3.838851,0.954042,1.252366
LINE596,0.000000,1.101500,0.000000,4.093093,0.000000,0.951017
LINE597,0.000000,2.394537,1.001487,3.347803,0.000000,-1.565848
LINE598,0.229932,-0.841018,0.000000,3.920916,0.000000,0.442459
LINE599,0.200647,-0.841048,0.000000,1.754564,0.000000,1.564259
LINE600,0.000000,3.633436,0.192682,3.347714,0.000000,1.593535
LINE601,0.000000,2.198581,0.000000,0.256246,0.188300,1.252467
LINE602,4.855564,-0.841092,3.734045,3.347895,3.416582,1.252476
LINE603,0.000000,-0.661086,0.201123,3.347796,0.000000,-1.435504
LINE604,0.000000,1.135844,0.000000,-0.459925,0.000000,1.196752
LINE605,0.000000,2.443586,0.000000,-0.451381,0.000000,1.866637
LINE606,0.000000,-0.066893,0.000000,4.527705,0.954042,1.252366
LINE607,0.000000,4.528972,0.000000,1.499057,0.000000,1.444879
LINE608,0.000000,1.234736,0.000000,4.074263,0.000000,1.013324
LINE609,0.000000,2.370863,1.001487,3.347803,0.000000,-1.566241
LINE610,0.229932,-0.841018,0.000000,2.945889,0.000000,4.652894
LINE611,0.200647,-0.841048,0.000000,1.456485,0.000000,1.551781
LINE612,0.000000,3.725261,0.192682,3.347714,0.000000,1.580328
LINE613,0.000000,0.017894,0.000000,0.129866,0.188300,1.252467
LINE614,4.855564,-0.841092,3.734045,3.347895,3.416582,1.252476
LINE615,0.000000,4.264364,0.201123,3.347796,0.000000,4.567389
LINE616,0.000000,0.802444,0.000000,-0.337220,0.000000,1.082451
LINE617,0.000000,1.569838,0.000000,1.569838,0.000000,-1.337184
LINE618,0.000000,0.878370,0.000000,4.086208,0.954042,1.252366
LINE619,0.000000,2.418074,0.000000,-1.217552,0.000000,-0.787429
LINE620,0.000000,2.358372,1.001487,3.347803,0.000000,-1.566378
LINE621,0.200647,-0.841048,0.000000,3.270501,0.000000,-1.562797
LINE622,0.000000,3.585373,0.192682,3.347714,0.000000,1.580711
LINE623,0.000000,3.061884,0.226205,3.347702,0.000000,4.634756
LINE624,4.855564,-0.841092,3.507841,3.347907,3.416582,1.252476
LINE625,0.000000,-1.174667,0.201123,3.347796,0.000000,1.775181
LINE626,0.000000,2.905234,0.000000,4.642954,0.000000,0.971734
LINE627,0.000000,2.385918,1.001487,3.347803,0.000000,4.711230
LINE628,0.200647,-0.841048,0.000000,1.221220,0.000000,1.545494
LINE629,0.000000,3.491358,0.192682,3.347714,0.000000,1.584898
LINE630,0.000000,4.040336,0.226205,3.347702,0.000000,4.615988
LINE631,4.855564,-0.841092,3.507841,3.347907,3.416582,1.252476
LINE632,0.000000,4.644870,0.201123,3.347796,0.000000,3.074074
LINE633,0.000000,1.606721,0.000000,-0.938605,0.000000,-0.590671
LINE634,0.000000,2.426242,1.001487,3.347803,0.000000,4.710576
LINE635,0.000000,3.505965,0.192682,3.347714,0.000000,1.580704
LINE636,0.000000,-1.539306,0.226205,3.347702,0.000000,4.620484
LINE637,4.855564,-0.841092,3.507841,3.347907,3.416582,1.252476
LINE638,0.000000,0.000000,0.201123,3.347796,0.000000,-0.067519
LINE639,0.000000,-0.561455,0.000000,-1.052830,0.000000,1.234916
LINE640,0.000000,2.446252,1.001487,3.347803,0.000000,4.709776
LINE641,0.000000,3.474769,0.192682,3.347714,0.000000,1.576160
LINE642,0.000000,-0.468296,0.226205,3.347702,0.000000,4.386342
LINE643,4.855564,-0.841092,3.507841,3.347907,3.416582,1.252476
LINE644,0.000000,-0.292627,0.000000,-0.218499,0.000000,1.359900
LINE645,0.000000,2.482921,1.001487,3.347803,0.000000,4.701183
LINE646,0.000000,3.495051,0.192682,3.347714,0.000000,1.575354
LINE647,0.000000,-0.105026,0.226205,3.347702,0.000000,2.775916
LINE648,4.855564,-0.841092,3.507841,3.347907,3.416582,1.252476
LINE649,0.000000,1.697611,0.000000,0.142112,0.000000,-0.818184
LINE650,0.000000,2.739073,1.001487,3.347803,0.000000,4.693474
LINE651,0.000000,3.533377,0.192682,3.347714,0.000000,1.570710
LINE652,0.000000,0.291516,0.226205,3.347702,0.000000,3.930754
LINE653,4.855564,-0.841092,3.507841,3.347907,3.416582,1.252476
LINE654,0.000000,3.196360,0.000000,0.091616,0.000000,-0.476261
LINE655,0.000000,3.094639,0.821306,3.347804,0.000000,4.693642
LINE656,0.000000,-0.333406,0.180181,3.347799,0.000000,4.624348
LINE657,0.000000,3.569592,0.192682,3.347714,0.000000,1.559887
LINE658,0.000000,2.563654,0.226205,3.347702,0.000000,1.743655
LINE659,4.855564,-0.841092,3.507841,3.347907,3.416582,1.252476
LINE660,0.000000,2.735154,0.000000,0.187677,0.000000,-0.990656
LINE661,0.000000,3.224531,0.821306,3.347804,0.000000,4.604475
LINE662,0.000000,3.848327,0.180181,3.347799,0.000000,4.516945
LINE663,0.000000,3.629900,0.192682,3.347714,0.000000,1.559528
LINE664,0.000000,-0.754331,0.226205,3.347702,0.000000,1.671428
LINE665,4.855564,-0.841092,3.507841,3.347907,3.416582,1.252476
LINE666,0.000000,2.340131,0.000000,0.253810,0.000000,0.817586
LINE667,0.000000,3.208612,0.821306,3.347804,0.000000,-1.567741
LINE668,0.000000,2.578514,0.180181,3.347799,0.000000,1.779019
LINE669,0.000000,3.694624,0.192682,3.347714,0.000000,1.563794
LINE670,0.000000,0.495397,0.226205,3.347702,0.000000,1.602710
LINE671,3.948298,-0.841069,0.000000,2.842091,0.000000,-1.562866
LINE672,0.907266,-0.841189,3.507841,3.347907,3.416582,1.252476
LINE673,0.000000,-0.511928,0.000000,0.221455,0.000000,1.935680
LINE674,0.000000,3.164992,0.821306,3.347804,0.000000,4.167237
LINE675,0.000000,0.273895,0.180181,3.347799,0.000000,4.658882
LINE676,0.000000,3.803073,0.192682,3.347714,0.000000,1.566847
LINE677,0.000000,-0.418853,0.226205,3.347702,0.000000,1.545753
LINE678,3.948298,-0.841069,0.000000,2.019337,0.000000,-1.565810
LINE679,0.907266,-0.841189,3.507841,3.347907,3.416582,1.252476
LINE680,0.000000,2.939912,0.000000,2.939912,0.000000,-0.145406
LINE681,0.000000,-0.116100,0.821306,3.347804,0.000000,3.232682
LINE682,0.000000,3.635269,0.192682,3.347714,0.000000,1.561376
LINE683,0.000000,3.246927,0.226205,3.347702,0.000000,1.551519
LINE684,3.948298,-0.841069,0.000000,2.721456,0.000000,-1.558946
LINE685,0.907266,-0.841189,3.507841,3.347907,3.416582,1.252476
LINE686,0.000000,3.605964,0.192682,3.347714,0.000000,1.572509
LINE687,0.000000,2.259501,0.226205,3.347702,0.000000,1.642475
LINE688,3.948298,-0.841069,0.000000,2.357205,0.000000,-1.561360
LINE689,0.000000,1.424134,0.000000,1.241322,0.414301,1.252466
LINE690,0.907266,-0.841189,3.507841,3.347907,3.002281,1.252477
LINE691,0.000000,3.612864,0.192682,3.347714,0.000000,1.576511
LINE692,3.948298,-0.841069,0.000000,1.198805,0.000000,-1.543875
LINE693,0.000000,1.415577,0.000000,1.233238,0.205058,1.252466
LINE694,0.000000,1.619197,0.000000,4.496503,0.209243,1.252466
LINE695,0.000000,2.204277,0.121492,3.347745,0.000000,-0.328260
LINE696,0.907266,-0.841189,3.386348,3.347913,3.002281,1.252477
LINE697,0.000000,3.524145,0.192682,3.347714,0.000000,1.578816
LINE698,3.948298,-0.841069,0.000000,2.280365,0.000000,-1.552500
LINE699,0.000000,1.455325,0.000000,1.359789,0.205058,1.252466
LINE700,0.000000,3.278262,0.000000,-0.114919,0.209243,1.252466
LINE701,0.000000,-1.201138,0.121492,3.347745,0.000000,-1.560105
LINE702,0.907266,-0.841189,3.386348,3.347913,3.002281,1.252477
LINE703,0.000000,3.507855,0.192682,3.347714,0.000000,1.580432
LINE704,3.948298,-0.841069,0.000000,1.294555,0.000000,-1.547032
LINE705,0.000000,1.183825,0.000000,1.257785,0.205058,1.252466
LINE706,0.907266,-0.841189,3.386348,3.347913,3.002281,1.252477
LINE707,0.000000,0.907446,0.000000,0.519500,0.000000,-1.153291
LINE708,0.000000,3.496104,0.192682,3.347714,0.000000,1.582200
LINE709,3.948298,-0.841069,0.000000,1.470315,0.000000,-1.547273
LINE710,0.000000,1.072870,0.000000,1.428520,0.205058,1.252466
LINE711,0.480804,-0.841215,3.386348,3.347913,3.002281,1.252477
LINE712,0.426462,-0.841160,0.000000,4.026991,0.000000,1.627703
LINE713,0.000000,2.392363,0.000000,0.274479,0.000000,-1.315717
LINE714,0.000000,3.424931,0.192682,3.347714,0.000000,1.583895
LINE715,3.948298,-0.841069,0.000000,1.437769,0.000000,-1.548472
LINE716,0.000000,1.378790,0.000000,1.081865,0.205058,1.252466
LINE717,0.480804,-0.841215,3.386348,3.347913,3.002281,1.252477
LINE718,0.426462,-0.841160,0.000000,4.041650,0.000000,1.627717
LINE719,0.000000,3.050908,0.000000,0.290048,0.000000,-1.397882
LINE720,0.000000,4.000901,0.192682,3.347714,0.000000,1.590938
LINE721,3.948298,-0.841069,0.000000,1.539413,0.000000,-1.546908
LINE722,0.000000,1.137761,0.000000,0.678731,0.205058,1.252466
LINE723,0.480804,-0.841215,0.406460,3.347906,3.002281,1.252477
LINE724,0.000000,-1.517744,2.979889,3.347914,0.000000,1.936210
LINE725,0.426462,-0.841160,0.000000,4.003363,0.000000,1.611466
LINE726,0.000000,2.340747,0.000000,0.347291,0.000000,-1.555414
LINE727,0.000000,3.998750,0.192682,3.347714,0.000000,1.576990
LINE728,3.948298,-0.841069,0.000000,1.789915,0.000000,-1.547779
LINE729,0.000000,1.962565,0.000000,0.117851,0.205058,1.252466
LINE730,0.480804,-0.841215,0.406460,3.347906,3.002281,1.252477
LINE731,0.000000,-1.520185,2.979889,3.347914,0.000000,1.951099
LINE732,0.426462,-0.841160,0.000000,3.840279,0.000000,1.612281
LINE733,0.000000,2.650105,0.000000,0.199979,0.000000,-1.487271
LINE734,0.000000,-1.451630,0.192682,3.347714,0.000000,1.591504
LINE735,3.948298,-0.841069,0.000000,1.664545,0.000000,-1.543972
LINE736,0.000000,3.251047,0.000000,0.231953,0.205058,1.252466
LINE737,0.480804,-0.841215,0.406460,3.347906,3.002281,1.252477
LINE738,0.000000,4.615830,2.979889,3.347914,0.000000,1.908232
LINE739,0.426462,-0.841160,0.000000,3.838188,0.000000,1.608896
LINE740,0.000000,4.035724,0.000000,0.128612,0.000000,4.551313
LINE741,0.000000,-0.975660,0.192682,3.347714,0.000000,1.593005
LINE742,3.948298,-0.841069,0.000000,2.083274,0.000000,-1.550066
LINE743,0.000000,4.062010,0.000000,-0.368971,0.205058,1.252466
LINE744,0.480804,-0.841215,0.406460,3.347906,3.002281,1.252477
LINE745,0.000000,-0.156454,2.753584,3.347916,0.000000,1.656404
LINE746,0.000000,-0.132924,0.226304,3.347896,0.000000,3.404785
LINE747,0.426462,-0.841160,0.000000,3.821710,0.000000,1.593990
LINE748,0.000000,3.989865,0.000000,0.250244,0.000000,4.530183
LINE749,0.000000,-0.932114,0.192682,3.347714,0.000000,1.664666
LINE750,3.948298,-0.841069,0.000000,1.834051,0.000000,-1.555507
LINE751,0.000000,1.993339,0.000000,-0.236134,0.205058,1.252466
LINE752,0.480804,-0.841215,0.406460,3.347906,0.000000,1.576672
LINE753,0.000000,-0.663054,0.000000,4.266443,3.002281,1.252477
LINE754,0.000000,2.314443,2.753584,3.347916,0.000000,1.858967
LINE755,0.000000,3.120993,0.226304,3.347896,0.000000,3.350368
LINE756,0.426462,-0.841160,0.000000,3.861551,0.000000,1.584764
LINE757,0.000000,3.001543,0.000000,0.316227,0.000000,4.520786
LINE758,0.000000,4.679260,0.192682,3.347714,0.000000,4.681711
LINE759,3.948298,-0.841069,0.000000,1.442999,0.000000,-1.558155
LINE760,0.000000,-0.652132,0.000000,3.231972,0.205058,1.252466
LINE761,0.480804,-0.841215,0.406460,3.347906,0.000000,1.626526
LINE762,0.000000,-0.661621,0.000000,4.273678,3.002281,1.252477
LINE763,0.000000,3.026096,0.226304,3.347896,0.000000,4.638129
LINE764,0.426462,-0.841160,0.000000,3.813169,0.000000,1.579518
LINE765,0.000000,2.688288,0.000000,0.414828,0.000000,4.467728
LINE766,0.000000,3.471106,0.192682,3.347714,0.000000,4.621662
LINE767,3.948298,-0.841069,0.000000,1.310421,0.000000,-1.562992
LINE768,0.000000,4.684128,0.000000,3.132942,0.205058,1.252466
LINE769,0.480804,-0.841215,0.406460,3.347906,0.000000,1.668600
LINE770,0.000000,4.257306,0.000000,4.494626,1.704240,1.252479
LINE771,0.000000,-0.727844,0.000000,4.461605,1.298041,1.252474
LINE772,0.000000,3.524808,0.226304,3.347896,0.000000,4.618789
LINE773,0.426462,-0.841160,0.000000,3.741997,0.000000,1.579972
LINE774,0.000000,2.650396,0.000000,0.445474,0.000000,4.550834
LINE775,0.000000,0.248397,0.192682,3.347714,0.000000,4.595747
LINE776,3.948298,-0.841069,0.000000,1.042184,0.000000,-1.561722
LINE777,0.000000,-0.732762,0.000000,0.724230,0.205058,1.252466
LINE778,0.480804,-0.841215,0.406460,3.347906,0.000000,1.678542
LINE779,0.000000,-0.020435,0.000000,-0.995434,1.704240,1.252479
LINE780,0.000000,-0.960359,0.000000,4.340332,1.298041,1.252474
LINE781,0.000000,2.855999,0.226304,3.347896,0.000000,3.590493
LINE782,0.426462,-0.841160,0.000000,3.766217,0.000000,1.588619
LINE783,0.000000,2.603391,0.000000,0.792400,0.000000,4.699865
LINE784,0.000000,3.297067,0.192682,3.347714,0.000000,-1.304288
LINE785,3.948298,-0.841069,0.000000,1.134615,0.000000,-1.561199
LINE786,0.480804,-0.841215,0.406460,3.347906,0.000000,1.676985
LINE787,0.000000,-0.931625,0.000000,3.958393,1.298041,1.252474
LINE788,0.000000,3.445360,0.226304,3.347896,0.000000,3.314905
LINE789,0.426462,-0.841160,0.000000,3.777787,0.000000,1.579753
LINE790,0.000000,3.542953,0.000000,0.677248,0.000000,4.372327
LINE791,2.496993,-0.841067,0.000000,1.985545,0.000000,-1.560049
LINE792,1.451304,-0.841075,0.000000,3.779700,0.000000,1.613794
LINE793,0.480804,-0.841215,0.406460,3.347906,0.000000,1.649573
LINE794,0.000000,-0.921615,0.000000,3.947045,1.298041,1.252474
LINE795,0.000000,4.064555,0.226304,3.347896,0.000000,4.635431
LINE796,0.426462,-0.841160,0.000000,3.800718,0.000000,1.576178
LINE797,0.000000,1.638009,0.000000,0.602489,0.000000,4.249092
LINE798,2.496993,-0.841067,0.000000,1.280710,0.000000,-1.557002
LINE799,1.451304,-0.841075,0.000000,4.660580,0.000000,1.586547
LINE800,0.480804,-0.841215,0.000000,4.244149,0.000000,1.528746
LINE801,0.000000,1.893369,0.406460,3.347906,0.000000,1.991617
LINE802,0.000000,-0.943982,0.000000,3.760911,1.298041,1.252474
LINE803,0.000000,0.608323,0.226304,3.347896,0.000000,1.557643
LINE804,0.426462,-0.841160,0.000000,3.686992,0.000000,1.586512
LINE805,0.000000,2.902649,0.000000,0.984703,0.000000,2.925007
LINE806,2.496993,-0.841067,0.000000,1.117284,0.000000,-1.549629
LINE807,1.451304,-0.841075,0.000000,-0.518139,0.000000,1.611256
LINE808,0.480804,-0.841215,0.000000,4.584075,0.000000,1.499730
LINE809,0.000000,2.127303,0.406460,3.347906,0.000000,1.998577
LINE810,0.000000,-0.201681,0.000000,-0.201681,0.000000,2.996186
LINE811,0.000000,-1.050301,0.000000,2.663529,1.298041,1.252474
LINE812,0.000000,3.693301,0.226304,3.347896,0.000000,4.490285
LINE813,0.426462,-0.841160,0.000000,3.775685,0.000000,1.565190
LINE814,0.000000,1.165312,0.000000,2.839754,0.000000,3.837340
LINE815,2.496993,-0.841067,0.000000,1.486331,0.000000,-1.558107
LINE816,1.451304,-0.841075,0.000000,-0.048113,0.000000,2.001787
LINE817,0.480804,-0.841215,0.000000,4.366907,0.000000,1.501359
LINE818,0.000000,1.702917,0.406460,3.347906,0.000000,1.793230
LINE819,0.000000,4.552243,0.000000,4.552243,0.000000,1.224534
LINE820,0.000000,-0.457897,0.000000,3.532513,1.298041,1.252474
LINE821,0.426462,-0.841160,0.000000,3.798224,0.000000,1.578538
LINE822,0.000000,0.262691,0.000000,2.823281,0.000000,3.011449
LINE823,2.496993,-0.841067,0.000000,2.550521,0.000000,-1.558041
LINE824,0.480804,-0.841215,0.000000,0.228837,0.000000,1.495137
LINE825,0.000000,0.905720,0.406460,3.347906,0.000000,1.791605
LINE826,0.000000,1.483243,0.000000,4.217266,0.000000,1.438701
LINE827,0.000000,-1.285291,0.000000,2.934284,1.298041,1.252474
LINE828,0.426462,-0.841160,0.000000,3.781656,0.000000,1.572175
LINE829,0.000000,2.956250,0.000000,-0.090496,0.000000,1.431499
LINE830,2.496993,-0.841067,0.000000,2.587863,0.000000,-1.493630
LINE831,0.480804,-0.841215,0.000000,0.184075,0.000000,0.966228
LINE832,0.000000,-0.019932,0.406460,3.347906,0.000000,1.665004
LINE833,0.000000,-0.201681,0.000000,-0.201681,0.000000,2.996186
LINE834,0.000000,-0.665778,0.000000,2.693481,1.298041,1.252474
LINE835,0.426462,-0.841160,0.000000,3.798597,0.000000,1.568134
LINE836,2.496993,-0.841067,0.000000,2.645819,0.000000,-1.516092
LINE837,0.480804,-0.841215,0.000000,0.278542,0.000000,-1.424760
LINE838,0.000000,0.086322,0.406460,3.347906,0.000000,1.615698
LINE839,0.000000,4.157020,0.000000,0.708035,0.000000,4.458546
LINE840,0.426462,-0.841160,0.000000,3.803963,0.000000,1.571073
LINE841,2.496993,-0.841067,0.000000,2.080848,0.000000,4.678790
LINE842,0.480804,-0.841215,0.000000,0.278658,0.000000,-1.492814
LINE843,0.000000,-0.308636,0.406460,3.347906,0.000000,4.585648
LINE844,0.000000,2.749667,0.000000,0.394376,0.000000,1.513410
LINE845,0.000000,1.660393,0.000000,4.329506,0.000000,-0.990327
LINE846,0.426462,-0.841160,0.000000,3.800461,0.000000,1.577638
LINE847,2.496993,-0.841067,0.000000,3.032019,0.000000,1.023639
LINE848,0.480804,-0.841215,0.000000,0.577786,0.000000,-0.726469
LINE849,0.000000,-0.358975,0.406460,3.347906,0.000000,4.516431
LINE850,0.000000,2.539587,0.000000,0.587026,0.000000,1.519449
LINE851,0.000000,1.501423,0.000000,1.417526,0.000000,2.594748
LINE852,0.426462,-0.841160,0.000000,3.613710,0.000000,1.586591
LINE853,2.496993,-0.841067,0.000000,2.431086,0.000000,1.343848
LINE854,0.480804,-0.841215,0.000000,0.607300,0.000000,1.321742
LINE855,0.000000,-0.400763,0.406460,3.347906,0.000000,4.526289
LINE856,0.000000,2.675389,0.000000,0.550204,0.000000,1.499552
LINE857,0.000000,2.532327,0.000000,-0.664548,0.000000,-0.668183
LINE858,0.426462,-0.841160,0.000000,3.747429,0.000000,1.650125
LINE859,0.221661,-0.841083,0.000000,3.152030,0.000000,4.674844
LINE860,2.275332,-0.841065,0.000000,-0.696493,0.000000,-1.531936
LINE861,0.480804,-0.841215,0.000000,0.602150,0.000000,1.322296
LINE862,0.000000,-0.418963,0.406460,3.347906,0.000000,4.538100
LINE863,0.000000,2.735340,0.000000,0.601253,0.000000,1.503399
LINE864,0.000000,2.687362,0.000000,2.687362,0.000000,1.572589
LINE865,0.426462,-0.841160,0.000000,3.524736,0.000000,1.625750
LINE866,0.480804,-0.841215,0.000000,0.572654,0.000000,1.209344
LINE867,0.000000,-0.426289,0.406460,3.347906,0.000000,4.549942
LINE868,0.000000,1.476478,0.000000,0.394885,0.000000,1.497366
LINE869,0.000000,4.583681,0.000000,1.376105,0.000000,1.605990
LINE870,0.426462,-0.841160,0.000000,3.568340,0.000000,1.968388
LINE871,0.480804,-0.841215,0.000000,0.551411,0.000000,1.356303
LINE872,0.000000,-0.963574,0.209516,3.347906,0.000000,1.830000
LINE873,0.000000,-0.067519,0.196944,3.347905,0.000000,-0.067519
LINE874,0.000000,-0.242424,0.000000,3.978724,0.000000,1.629511
LINE875,0.000000,0.723416,0.000000,-0.446268,0.000000,1.054471
LINE876,0.426462,-0.841160,0.000000,3.120490,0.000000,1.899905
LINE877,0.480804,-0.841215,0.000000,0.550335,0.000000,1.331081
LINE878,0.000000,-0.852917,0.209516,3.347906,0.000000,1.654936
LINE879,0.000000,-0.531166,0.196944,3.347905,0.000000,1.434053
LINE880,0.000000,-0.201681,0.000000,-0.201681,0.000000,2.996186
LINE881,0.000000,-0.138280,0.000000,2.939912,0.000000,0.120359
LINE882,0.426462,-0.841160,0.000000,3.081730,0.000000,1.599058
LINE883,0.480804,-0.841215,0.000000,0.648972,0.000000,1.302073
LINE884,0.000000,1.503278,0.209516,3.347906,0.000000,1.613667
LINE885,0.000000,0.000000,0.196944,3.347905,0.000000,-0.067519
LINE886,0.426462,-0.841160,0.000000,2.813369,0.000000,1.531214
LINE887,0.250855,-0.841214,0.000000,0.634840,0.000000,1.458338
LINE888,0.229950,-0.841215,0.000000,4.001825,0.000000,1.409697
LINE889,0.000000,1.503278,0.209516,3.347906,0.000000,3.074074
LINE890,0.426462,-0.841160,0.000000,-0.610984,0.000000,2.380465
LINE891,0.250855,-0.841214,0.000000,0.561440,0.000000,1.443720
LINE892,0.229950,-0.841215,0.000000,-1.012264,0.000000,1.174963
LINE893,0.000000,0.396129,0.209516,3.347906,0.000000,4.665863
LINE894,0.225774,-0.841159,0.000000,0.084727,0.000000,1.755503
LINE895,0.200687,-0.841161,0.000000,0.728129,0.000000,-1.564501
LINE896,0.250855,-0.841214,0.000000,0.362948,0.000000,1.186819
LINE897,0.229950,-0.841215,0.000000,3.743748,0.000000,4.606868
LINE898,0.000000,0.000000,0.209516,3.347906,0.000000,-0.067519
LINE899,0.225774,-0.841159,0.000000,2.567720,0.000000,1.595651
LINE900,0.250855,-0.841214,0.000000,0.761999,0.000000,1.474171
LINE901,0.250855,-0.841214,0.000000,1.337292,0.000000,1.494363
LINE902,0.250855,-0.841214,0.000000,0.113750,0.000000,1.189824
LINE903,0.250855,-0.841214,0.000000,-0.971449,0.000000,1.717943
LINE904,0.250855,-0.841214,0.000000,4.527123,0.000000,1.546274
LINE905,0.250855,-0.841214,0.000000,0.600789,0.000000,1.537089
